%chk=EGLNRPSG-1_UB3LYP-6-31G_dp-Water-Opt.chk
%mem=500MW
%nproc=7
#p opt=(maxcycles=777) freq UB3LYP/6-31G(d,p) scrf=(cpcm,solvent=Water) pop=(Bonding,AllOrbitals,mk,no,nboread)

EGLNRPSG-1_UB3LYP-6-31G_dp

0 1
N          -4.19300        -5.72500        -3.15100
C          -2.77600        -5.35800        -3.36300
C          -2.51100        -3.85300        -3.44200
O          -1.98800        -3.35500        -2.46700
C          -2.16800        -6.12200        -4.53900
C          -0.64200        -6.06600        -4.56600
C          -0.02800        -6.86700        -3.41900
O          -0.41400        -6.59600        -2.26600
O           0.92100        -7.61400        -3.70000
H          -2.25600        -5.67600        -2.45500
H          -2.55600        -5.70700        -5.46700
H          -2.48400        -7.16300        -4.47100
H          -0.29900        -6.48100        -5.51000
H          -0.29300        -5.03800        -4.50500
H          -4.54000        -5.33300        -2.28900
H          -4.76900        -5.42800        -3.92400
H          -4.24900        -6.73700        -3.07500
N          -2.99400        -3.09300        -4.43700
C          -2.77200        -1.63300        -4.55200
C          -3.28600        -0.72000        -3.42600
O          -3.12400         0.48300        -3.56100
H          -3.36500        -3.56000        -5.25900
H          -1.70600        -1.44300        -4.59800
H          -3.22000        -1.27600        -5.46700
N          -3.80900        -1.27100        -2.32300
C          -3.94900        -0.56900        -1.03900
C          -2.85800        -0.93900        -0.01900
O          -2.34700        -0.08200         0.68200
C          -5.35000        -0.85100        -0.46700
C          -5.63300        -0.23300         0.91500
C          -5.62600         1.29700         0.87500
C          -7.00100        -0.70100         1.42200
H          -3.80100        -2.27600        -2.27900
H          -3.87700         0.51200        -1.19700
H          -5.47100        -1.94000        -0.37700
H          -6.11000        -0.49400        -1.16700
H          -4.89100        -0.57700         1.64200
H          -7.18500        -0.27700         2.41400
H          -7.78900        -0.37400         0.74200
H          -7.01400        -1.78900         1.51000
H          -5.98300         1.69200         1.82500
H          -6.26000         1.65800         0.06900
H          -4.60500         1.65000         0.73100
N          -2.41100        -2.20400         0.00700
C          -1.40300        -2.72400         0.94100
C          -0.03300        -2.05700         0.72300
O           0.60800        -1.64100         1.67700
C          -1.34200        -4.26500         0.79200
C          -0.44400        -4.93000         1.82300
N           0.38200        -5.86800         1.41700
O          -0.63900        -4.78200         3.01100
H          -2.64000        -2.79600        -0.77500
H          -1.71200        -2.48200         1.96200
H          -2.33700        -4.67900         0.94200
H          -0.99700        -4.53500        -0.20500
H           0.92500        -6.30900         2.14100
H           0.46600        -6.12300         0.44700
N           0.31600        -1.78900        -0.54500
C           1.53300        -1.05600        -0.93400
C           1.55800         0.43100        -0.49600
O           2.63500         0.84400        -0.10000
C           1.79400        -1.22600        -2.44200
C           2.12600        -2.66200        -2.89500
C           2.22800        -2.64000        -4.42900
N           2.41400        -3.97300        -5.03900
C           2.49600        -4.21500        -6.33800
N           2.62500        -5.43300        -6.78000
N           2.42900        -3.25800        -7.22600
H          -0.29000        -2.14300        -1.26800
H           2.38100        -1.49300        -0.39100
H           0.91200        -0.89100        -2.98500
H           2.63300        -0.58100        -2.71200
H           3.07600        -2.98300        -2.46200
H           1.33700        -3.35000        -2.58800
H           1.30900        -2.20400        -4.82500
H           3.06500        -1.99500        -4.70500
H           2.50600        -4.76300        -4.41500
H           2.64700        -6.20300        -6.12500
H           2.71900        -5.61400        -7.76100
H           2.38600        -2.30700        -6.90400
H           2.53400        -3.45300        -8.20400
N           0.46900         1.23600        -0.54300
C           0.43700         2.55300         0.10400
C           0.41000         2.57100         1.63400
O           0.56300         3.65000         2.19400
C          -0.84300         3.23700        -0.38000
C          -1.08000         2.65300        -1.75600
C          -0.46700         1.25200        -1.65900
H           1.30900         3.11400        -0.24000
H          -1.67700         2.95600         0.26800
H          -0.72300         4.31900        -0.40400
H          -2.15100         2.60900        -1.97800
H          -0.55800         3.25500        -2.50400
H           0.06800         1.07500        -2.59400
H          -1.26300         0.52900        -1.50000
N          -0.03100         1.48900         2.28600
C          -0.01100         1.39900         3.75700
C           1.39300         1.13600         4.31900
O           1.58300         1.26800         5.53000
C          -0.92100         0.26200         4.23200
O          -2.27300         0.45200         3.85900
H          -0.32600         0.67500         1.76800
H          -0.37100         2.33300         4.18600
H          -0.56400        -0.68100         3.81900
H          -0.86900         0.20000         5.32200
H          -2.81100        -0.14500         4.38300
N           2.26800         0.56100         3.48000
C           3.65700         0.16400         3.75800
C           4.68800         1.27000         3.57200
O           5.65600         1.22800         4.35600
O           4.73300         1.78800         2.43000
H           1.96700         0.43700         2.52600
H           3.75500        -0.19700         4.77800
H           3.94000        -0.62500         3.07000

$nbo bndidx $end

nprocshared=7
